! Load1 School
! Load2 Sport hall
! Load3 4 single family houses
! Load4 20 Single-family houses. 
! Load5 Storgården with 12 apartments, communal rooms for children ADMD+
! Load6 ICA and offices for a sport club (Gamla Upsala SK).
! Load7 Gamla Uppsala Museum.
! Load8 Restaurant. 
! Load9 Church. 
! Load10 Open air museum and a shop. (Disagården and Kungsgården)
! Load11 Shop (löppis). 
! Load12 400 m of LED streetlights to the swimming area in Gamla Uppsala (Storvad).
! Load13 Illumination for the football field connected to one phase.


New Transformer.TR1 Buses=[SourceBus.1.2.3, Sub_Bus.1.2.3.0] Conns=[Delta Wye] kVs= [11 0.48] !1500 kVA trafo
~ kVAs=[1500 1500] XHL=6.28

New Line.LINE1              Bus1=Sub_Bus.1.2.3.4         Bus2=JunctionBus1.1.2.3.4  Linecode=sqmm300 Length=.500 Units=km
New Line.LINE2              Bus1=Sub_Bus.1.2.3.4         Bus2=JunctionBus1.1.2.3.4  Linecode=sqmm300 Length=.500 Units=km
New Line.LINE3              Bus1=Sub_Bus.1.2.3.4         Bus2=JunctionBus1.1.2.3.4  Linecode=sqmm300 Length=.500 Units=km
New Line.LINE4              Bus1=Sub_Bus.1.2.3.4         Bus2=JunctionBus1.1.2.3.4  Linecode=sqmm300 Length=.500 Units=km
New Line.LINE5              Bus1=Sub_Bus.1.2.3.4         Bus2=JunctionBus1.1.2.3.4  Linecode=sqmm300 Length=.500 Units=km
New Line.LINE6              Bus1=Sub_Bus.1.2.3.4         Bus2=JunctionBus1.1.2.3.4  Linecode=sqmm300 Length=.500 Units=km


New Line.ToLoad7            Bus1=JunctionBus1.1.2.3.4    Bus2=LoadBus7.1.2.3.4      Linecode=sqmm35  Length=.070 Units=km
New Line.Arnavagen1_1       Bus1=JunctionBus1.1.2.3.4    Bus2=LoadBus8.1.2.3.4      Linecode=sqmm185 Length=.173 Units=km
New Line.Arnavagen1_2       Bus1=JunctionBus1.1.2.3.4    Bus2=LoadBus8.1.2.3.4      Linecode=sqmm185 Length=.173 Units=km
New Line.Arnavagen1_3       Bus1=JunctionBus1.1.2.3.4    Bus2=LoadBus8.1.2.3.4      Linecode=sqmm185 Length=.173 Units=km
New Line.Arnavagen2_1       Bus1=LoadBus8.1.2.3.4        Bus2=LoadBus10.1.2.3.4     Linecode=sqmm185 Length=.173 Units=km
New Line.Arnavagen2_2       Bus1=LoadBus8.1.2.3.4        Bus2=LoadBus10.1.2.3.4     Linecode=sqmm185 Length=.173 Units=km
New Line.ToChurch           Bus1=LoadBus8.1.2.3.4        Bus2=LoadBus9.1.2.3.4      Linecode=sqmm35  Length=.200 Units=km
New Line.ArnavagenNorth     Bus1=LoadBus10.1.2.3.4       Bus2=LoadBus12.1.2.3.4     Linecode=sqmm4   Length=.200 Units=km
New Line.Arnavagen3         Bus1=LoadBus10.1.2.3.4       Bus2=LoadBus11.1.2.3.4     Linecode=sqmm35  Length=.330 Units=km
New Line.Junction1East1     Bus1=JunctionBus1.1.2.3.4    Bus2=JunctionBus2.1.2.3.4  Linecode=sqmm300 Length=.175 Units=km
New Line.Junction1East2     Bus1=JunctionBus1.1.2.3.4    Bus2=JunctionBus2.1.2.3.4  Linecode=sqmm300 Length=.175 Units=km
New Line.Junction1East3     Bus1=JunctionBus1.1.2.3.4    Bus2=JunctionBus2.1.2.3.4  Linecode=sqmm300 Length=.175 Units=km
New Line.Junction1East4     Bus1=JunctionBus1.1.2.3.4    Bus2=JunctionBus2.1.2.3.4  Linecode=sqmm300 Length=.175 Units=km

New Line.Houses1_1          Bus1=JunctionBus2.1.2.3.4    Bus2=HouseBus1.1.2.3.4     Linecode=sqmm95  Length=.100 Units=km
New Line.Houses1_2          Bus1=JunctionBus2.1.2.3.4    Bus2=HouseBus1.1.2.3.4     Linecode=sqmm95  Length=.100 Units=km
New Line.Houses1_3          Bus1=JunctionBus2.1.2.3.4    Bus2=HouseBus1.1.2.3.4     Linecode=sqmm95  Length=.100 Units=km
New Line.Houses2_1          Bus1=HouseBus1.1.2.3.4       Bus2=HouseBus2.1.2.3.4     Linecode=sqmm95  Length=.090 Units=km
New Line.Houses2_2          Bus1=HouseBus1.1.2.3.4       Bus2=HouseBus2.1.2.3.4     Linecode=sqmm95  Length=.090 Units=km
New Line.Houses2_3          Bus1=HouseBus1.1.2.3.4       Bus2=HouseBus2.1.2.3.4     Linecode=sqmm95  Length=.090 Units=km
New Line.Junction2North1    Bus1=JunctionBus2.1.2.3.4    Bus2=LoadBus6.1.2.3.4      Linecode=sqmm300  Length=.140 Units=km
New Line.Junction2North2    Bus1=JunctionBus2.1.2.3.4    Bus2=LoadBus6.1.2.3.4      Linecode=sqmm300  Length=.140 Units=km
New Line.ToLoad1_1          Bus1=LoadBus6.1.2.3.4        Bus2=LoadBus1.1.2.3.4      Linecode=sqmm185  Length=.080 Units=km
New Line.ToLoad1_2          Bus1=LoadBus6.1.2.3.4        Bus2=LoadBus1.1.2.3.4      Linecode=sqmm185  Length=.080 Units=km
New Line.ToFootballPhase    Bus1=LoadBus6.1.2.3.4        Bus2=LoadBus13.1.2.3.4     Linecode=sqmm185  Length=.230 Units=km

!New Capacitor.CapSub bus1=Sub_Bus.1.2.3.4                kV=0.230 kvar=150
!New Capacitor.CapJunction1 bus1=JunctionBus1.1.2.3.4     kV=0.230 kvar=200
!New Capacitor.CapJunction2 bus1=JunctionBus2.1.2.3.4     kV=0.230 kvar=100
!New Capacitor.CapLoad6 bus1=LoadBus6.1.2.3.4             kV=0.230 kvar=50

New Line.Lineground phases=1 bus1=Sub_Bus.4 Bus2 = Sub_Bus.0 R=1
New Load.Load1  Bus1=LoadBus1.1.2.3.4           kV=0.4 kW=35       PF=.95
New Load.Load2  Bus1=LoadBus1.1.2.3.4           kV=0.4 kW=233      PF=.95
New Load.Load3  Bus1=HouseBus1.1.2.3.4          kV=0.4 kW=48       PF=.95
New Load.Load4  Bus1=HouseBus2.1.2.3.4          kV=0.4 kW=240      PF=.95
New Load.Load5  Bus1=JunctionBus2.1.2.3.4       kV=0.4 kW=258.88   PF=.95
New Load.Load6  Bus1=LoadBus6.1.2.3.4           kV=0.4 kW=104      PF=.95
New Load.Load7  Bus1=LoadBus7.1.2.3.4           kV=0.4 kW=53       PF=.95
New Load.Load8  Bus1=LoadBus8.1.2.3.4           kV=0.4 kW=15       PF=.95
New Load.Load9  Bus1=LoadBus9.1.2.3.4           kV=0.4 kW=50       PF=.95
New Load.Load10 Bus1=LoadBus10.1.2.3.4          kV=0.4 kW=100      PF=.95
New Load.Load11 Bus1=LoadBus11.1.2.3.4          kV=0.4 kW=20       PF=.95
New Load.Load12 Bus1=LoadBus12.1.2.3.4          kV=0.4 kW=1.3      PF=.95
New Load.Load13 Bus1=LoadBus13.1.4              kV=0.23 kW=50       PF=.95 phases=1 


New Capacitor.Cap1  Bus1=JunctionBus1.1.2.3.4   kV=0.4 kvar=120
New Capacitor.Cap2  Bus1=JunctionBus2.1.2.3.4   kV=0.4 kvar=120

