Clear
Set DefaultBaseFrequency=50
New Circuit.GuGrid
Edit Vsource.Source BasekV=11 pu=1.05 ISC3=60000 ISC1=50000
Set MaxControliter=500
Set maxiterations=100

Redirect line_code.dss
Redirect gu_grid.dss


Solve
show power in loads
show current in lines
show voltage ln nodes