Clear
Set DefaultBaseFrequency=50
New Circuit.GuGrid
Edit Vsource.Source BasekV=11 pu=1.00 ISC3=12040 ISC1=12040
Set MaxControliter=500
Set maxiterations=100

Redirect line_code.dss
Redirect gu_grid.dss


Solve
show power bus
show current elements
show voltage ln nodes
CktLosses